Version 4
SHEET 1 880 696
WIRE 32 160 -48 160
WIRE 160 160 112 160
WIRE 240 160 160 160
WIRE 336 160 304 160
WIRE 480 160 416 160
WIRE -48 208 -48 160
WIRE 160 208 160 160
WIRE 480 208 480 160
WIRE -48 320 -48 288
WIRE 160 320 160 272
WIRE 480 320 480 288
WIRE 32 496 -48 496
WIRE 160 496 112 496
WIRE 240 496 160 496
WIRE 336 496 304 496
WIRE 480 496 416 496
WIRE -48 544 -48 496
WIRE 160 544 160 496
WIRE 480 544 480 496
WIRE -48 656 -48 624
WIRE 160 656 160 608
WIRE 480 656 480 624
FLAG 160 320 0
FLAG 480 320 0
FLAG -48 320 0
FLAG 160 656 0
FLAG 480 656 0
FLAG -48 656 0
SYMBOL res 128 144 R90
WINDOW 0 0 56 VBottom 2
WINDOW 3 32 56 VTop 2
SYMATTR InstName R1
SYMATTR Value 10K
SYMBOL res 432 144 R90
WINDOW 0 0 56 VBottom 2
WINDOW 3 32 56 VTop 2
SYMATTR InstName R2
SYMATTR Value 0
SYMBOL cap 144 208 R0
SYMATTR InstName C1
SYMATTR Value 47n
SYMBOL cap 304 144 R90
WINDOW 0 0 32 VBottom 2
WINDOW 3 32 32 VTop 2
SYMATTR InstName C2
SYMATTR Value 2.2n
SYMBOL res 464 192 R0
SYMATTR InstName R3
SYMATTR Value 150K
SYMBOL voltage -48 192 R0
WINDOW 123 24 124 Left 2
WINDOW 39 0 0 Left 0
SYMATTR InstName V1
SYMATTR Value SINE()
SYMATTR Value2 AC 1V
SYMBOL res 128 480 R90
WINDOW 0 0 56 VBottom 2
WINDOW 3 32 56 VTop 2
SYMATTR InstName R4
SYMATTR Value 25K
SYMBOL res 432 480 R90
WINDOW 0 0 56 VBottom 2
WINDOW 3 32 56 VTop 2
SYMATTR InstName R5
SYMATTR Value 0
SYMBOL cap 144 544 R0
SYMATTR InstName C3
SYMATTR Value 18n
SYMBOL cap 304 480 R90
WINDOW 0 0 32 VBottom 2
WINDOW 3 32 32 VTop 2
SYMATTR InstName C4
SYMATTR Value 2.2n
SYMBOL res 464 528 R0
SYMATTR InstName R6
SYMATTR Value 150K
SYMBOL voltage -48 528 R0
WINDOW 123 24 124 Left 2
WINDOW 39 0 0 Left 0
SYMATTR InstName V2
SYMATTR Value SINE()
SYMATTR Value2 AC 1V
TEXT -82 344 Left 2 !.ac dec 20 10 20000
TEXT -82 680 Left 2 !;ac dec 20 10 20000
